Version 4
SHEET 1 880 680
WIRE 272 -528 0 -528
WIRE 752 -528 272 -528
WIRE 352 -512 176 -512
WIRE 448 -512 352 -512
WIRE 352 -496 352 -512
WIRE 448 -496 448 -512
WIRE -480 -464 -608 -464
WIRE 0 -464 0 -528
WIRE 0 -464 -368 -464
WIRE -608 -448 -608 -464
WIRE 752 -432 752 -448
WIRE 752 -432 592 -432
WIRE -336 -416 -368 -416
WIRE 272 -416 272 -528
WIRE 592 -416 592 -432
WIRE 176 -400 176 -512
WIRE 240 -400 176 -400
WIRE 272 -400 272 -416
WIRE 352 -384 352 -432
WIRE 352 -384 304 -384
WIRE 448 -384 448 -416
WIRE 448 -384 352 -384
WIRE 512 -384 448 -384
WIRE 608 -384 592 -384
WIRE 720 -384 608 -384
WIRE 240 -368 64 -368
WIRE -608 -320 -608 -368
WIRE -480 -320 -480 -416
WIRE -480 -320 -608 -320
WIRE -336 -304 -336 -416
WIRE -240 -304 -336 -304
WIRE -48 -304 -160 -304
WIRE 64 -304 64 -368
WIRE 64 -304 -48 -304
WIRE 176 -304 176 -400
WIRE 608 -304 608 -384
WIRE -608 -272 -608 -320
WIRE -48 -176 -48 -240
WIRE 64 -176 64 -224
WIRE 64 -176 -48 -176
WIRE 176 -176 176 -224
WIRE 176 -176 64 -176
WIRE 272 -176 272 -352
WIRE 272 -176 176 -176
WIRE 608 -176 608 -240
WIRE 608 -176 272 -176
WIRE 656 -176 608 -176
WIRE 656 -160 656 -176
FLAG 656 -160 0
FLAG 592 -416 0
FLAG 720 -384 ADC
FLAG -608 -272 0
SYMBOL res 48 -320 R0
SYMATTR InstName R6
SYMATTR Value 100k
SYMBOL res 160 -320 R0
SYMATTR InstName R7
SYMATTR Value 1k
SYMBOL res 432 -512 R0
SYMATTR InstName R8
SYMATTR Value 100k
SYMBOL cap -64 -304 R0
SYMATTR InstName C2
SYMATTR Value 100n
SYMBOL cap 336 -496 R0
SYMATTR InstName C6
SYMATTR Value 1µ
SYMBOL cap 592 -304 R0
SYMATTR InstName C7
SYMATTR Value 100n
SYMBOL OpAmps\\LTC1050 272 -448 R0
SYMATTR InstName U2
SYMBOL res 608 -400 R90
WINDOW 0 0 56 VBottom 2
WINDOW 3 32 56 VTop 2
SYMATTR InstName R9
SYMATTR Value 1k
SYMBOL voltage 752 -544 R0
WINDOW 123 0 0 Left 0
WINDOW 39 0 0 Left 0
SYMATTR InstName V3
SYMATTR Value 5
SYMBOL res -144 -320 R90
WINDOW 0 0 56 VBottom 2
WINDOW 3 32 56 VTop 2
SYMATTR InstName R10
SYMATTR Value 10k
SYMBOL Projet2 -448 -432 R0
SYMATTR InstName X1
SYMBOL voltage -608 -464 R0
WINDOW 123 24 44 Left 2
WINDOW 39 0 0 Left 0
SYMATTR Value2 AC 1 0
SYMATTR InstName V4
SYMATTR Value PULSE(0 1 0.2 0.1 0.1 10)
TEXT -248 -144 Left 2 !;.tran 12
TEXT -520 -144 Left 2 !.ac dec 100 1 1G
